goiania_leste_dss/TR3/CTMT_5002414.dss
! ==============================================================================
! ALIMENTADOR CTMT_5002414 - GOIANIA LESTE-6
! Subestacao: Trafo TR3 (GOL-S-TRF-TR3) | Barra MT: 4630 -> PAC_INI: 84799245002414
! ==============================================================================

! 1. Disjuntor de Saida MT do Alimentador
new line.DJ_5002414 phases=3 bus1=4630 bus2=84799245002414 switch=y r1=1e-4 x1=1e-4 length=0.001 units=km

! 2. Linhas de Media Tensao (MT)
new line.53113039 phases=3 bus1=82322145002414.1.2.3 bus2=82322125002414.1.2.3 r1=1.551 x1=0.49 length=0.016646 units=km normamps=114.0
new line.53113040 phases=3 bus1=82322125002414.1.2.3 bus2=82322135002414.1.2.3 r1=1.551 x1=0.49 length=0.017612 units=km normamps=114.0
new line.53113041 phases=3 bus1=82322155002414.1.2.3 bus2=82322125002414.1.2.3 r1=1.551 x1=0.49 length=0.01758 units=km normamps=114.0
new line.53113042 phases=3 bus1=82322125002414.1.2.3 bus2=82322115002414.1.2.3 r1=1.551 x1=0.49 length=0.011248 units=km normamps=114.0
new line.53113043 phases=3 bus1=82335205002414.1.2.3 bus2=82335175002414.1.2.3 r1=0.975 x1=0.47 length=0.02488 units=km normamps=152.0
new line.53113044 phases=3 bus1=80439955002414.1.2.3 bus2=80439935002414B.1.2.3 r1=0.188 x1=0.26 length=0.011113 units=km normamps=525.0
new line.53113045 phases=3 bus1=82334185002414.1.2.3 bus2=82334195002414.1.2.3 r1=0.975 x1=0.47 length=0.026525 units=km normamps=152.0
new line.53113046 phases=3 bus1=82334195002414.1.2.3 bus2=89170145002414.1.2.3 r1=0.975 x1=0.47 length=0.008384 units=km normamps=152.0
new line.53113047 phases=3 bus1=82334205002414.1.2.3 bus2=82334215002414.1.2.3 r1=0.975 x1=0.47 length=0.034563 units=km normamps=152.0
new line.53113048 phases=3 bus1=82334215002414B.1.2.3 bus2=82334225002414.1.2.3 r1=0.975 x1=0.47 length=0.035716 units=km normamps=152.0
new line.53113049 phases=3 bus1=82334225002414.1.2.3 bus2=82334235002414.1.2.3 r1=0.975 x1=0.47 length=0.032287 units=km normamps=152.0
new line.53113050 phases=3 bus1=82334235002414.1.2.3 bus2=82334245002414.1.2.3 r1=0.975 x1=0.47 length=0.032487 units=km normamps=152.0
new line.53113051 phases=3 bus1=82334245002414.1.2.3 bus2=82334255002414.1.2.3 r1=0.975 x1=0.47 length=0.021421 units=km normamps=152.0
new line.53113052 phases=3 bus1=82330245002414.1.2.3 bus2=82334005002414.1.2.3 r1=0.975 x1=0.47 length=0.039073 units=km normamps=152.0
new line.53113053 phases=3 bus1=82334005002414.1.2.3 bus2=82334115002414.1.2.3 r1=0.975 x1=0.47 length=0.041915 units=km normamps=152.0
new line.53113054 phases=3 bus1=82333875002414.1.2.3 bus2=82330225002414.1.2.3 r1=0.975 x1=0.47 length=0.033873 units=km normamps=152.0
new line.53113055 phases=3 bus1=82330225002414.1.2.3 bus2=82330245002414.1.2.3 r1=0.975 x1=0.47 length=0.035496 units=km normamps=152.0
new line.53113056 phases=3 bus1=82328595002414.1.2.3 bus2=82333865002414.1.2.3 r1=0.975 x1=0.47 length=0.02488 units=km normamps=152.0
new line.53113057 phases=3 bus1=82333865002414.1.2.3 bus2=82333875002414.1.2.3 r1=0.975 x1=0.47 length=0.038709 units=km normamps=152.0
new line.53113058 phases=3 bus1=82325495002414.1.2.3 bus2=82325485002414.1.2.3 r1=1.551 x1=0.49 length=0.009415 units=km normamps=114.0
new line.53113059 phases=3 bus1=82324515002414.1.2.3 bus2=82325515002414.1.2.3 r1=0.613 x1=0.45 length=0.046227 units=km normamps=203.0
new line.53113060 phases=3 bus1=82325515002414.1.2.3 bus2=82325535002414.1.2.3 r1=0.613 x1=0.45 length=0.026996 units=km normamps=203.0
new line.53113061 phases=3 bus1=82325535002414.1.2.3 bus2=82325555002414.1.2.3 r1=0.613 x1=0.45 length=0.030914 units=km normamps=203.0
new line.53113062 phases=3 bus1=82324645002414.1.2.3 bus2=82324635002414.1.2.3 r1=0.975 x1=0.47 length=0.041715 units=km normamps=152.0
new line.53113063 phases=3 bus1=82324645002414.1.2.3 bus2=82324655002414.1.2.3 r1=1.551 x1=0.49 length=0.036712 units=km normamps=114.0
new line.53113064 phases=3 bus1=82324105002414.1.2.3 bus2=82324515002414.1.2.3 r1=0.613 x1=0.45 length=0.029242 units=km normamps=203.0
new line.53113065 phases=3 bus1=82324395002414.1.2.3 bus2=82324525002414.1.2.3 r1=0.195 x1=0.4 length=0.043501 units=km normamps=419.0
new line.53113066 phases=3 bus1=82324525002414.1.2.3 bus2=82324535002414.1.2.3 r1=0.195 x1=0.4 length=0.031556 units=km normamps=419.0
new line.53113067 phases=3 bus1=82324535002414.1.2.3 bus2=82324545002414.1.2.3 r1=0.195 x1=0.4 length=0.035817 units=km normamps=419.0
new line.53113068 phases=3 bus1=82324545002414.1.2.3 bus2=82324555002414.1.2.3 r1=0.195 x1=0.4 length=0.033711 units=km normamps=419.0
new line.53113069 phases=3 bus1=82324555002414.1.2.3 bus2=82324565002414.1.2.3 r1=0.195 x1=0.4 length=0.04017 units=km normamps=419.0
new line.53113070 phases=3 bus1=82323935002414B.1.2.3 bus2=94364495002414.1.2.3 r1=0.613 x1=0.45 length=0.009992 units=km normamps=203.0
new line.53113071 phases=3 bus1=82323925002414.1.2.3 bus2=82323935002414.1.2.3 r1=0.613 x1=0.45 length=0.015627 units=km normamps=203.0
new line.53113072 phases=3 bus1=82323945002414.1.2.3 bus2=96601545002414.1.2.3 r1=0.195 x1=0.4 length=0.016495 units=km normamps=419.0
new line.53113073 phases=3 bus1=82333625002414.1.2.3 bus2=82333795002414.1.2.3 r1=1.551 x1=0.49 length=0.036148 units=km normamps=114.0
new line.53113074 phases=3 bus1=82333635002414.1.2.3 bus2=82333645002414.1.2.3 r1=0.975 x1=0.47 length=0.046788 units=km normamps=152.0
new line.53113075 phases=3 bus1=82333615002414.1.2.3 bus2=82333635002414.1.2.3 r1=0.975 x1=0.47 length=0.003687 units=km normamps=152.0
new line.53113076 phases=3 bus1=82333665002414.1.2.3 bus2=82333655002414.1.2.3 r1=1.551 x1=0.49 length=0.044818 units=km normamps=114.0
new line.53113077 phases=3 bus1=82333655002414.1.2.3 bus2=82333635002414.1.2.3 r1=1.551 x1=0.49 length=0.036153 units=km normamps=114.0
new line.53113078 phases=3 bus1=82333675002414.1.2.3 bus2=82333665002414.1.2.3 r1=1.551 x1=0.49 length=0.033859 units=km normamps=114.0
new line.53113079 phases=3 bus1=82333465002414.1.2.3 bus2=82333675002414.1.2.3 r1=1.551 x1=0.49 length=0.032006 units=km normamps=114.0
new line.53113080 phases=3 bus1=82333635002414.1.2.3 bus2=82333625002414.1.2.3 r1=1.551 x1=0.49 length=0.006548 units=km normamps=114.0
new line.53113081 phases=3 bus1=82333375002414.1.2.3 bus2=82333465002414.1.2.3 r1=1.551 x1=0.49 length=0.027015 units=km normamps=114.0
new line.53113082 phases=3 bus1=82333605002414.1.2.3 bus2=82333615002414.1.2.3 r1=0.975 x1=0.47 length=0.038557 units=km normamps=152.0
new line.53113083 phases=3 bus1=82333345002414.1.2.3 bus2=82333335002414.1.2.3 r1=1.551 x1=0.49 length=0.018083 units=km normamps=114.0
new line.53113084 phases=3 bus1=82333335002414.1.2.3 bus2=82333355002414.1.2.3 r1=1.551 x1=0.49 length=0.038438 units=km normamps=114.0
new line.53113085 phases=3 bus1=82333345002414.1.2.3 bus2=82333365002414.1.2.3 r1=1.551 x1=0.49 length=0.044396 units=km normamps=114.0
new line.53113086 phases=3 bus1=82333365002414.1.2.3 bus2=82331365002414.1.2.3 r1=1.551 x1=0.49 length=0.034767 units=km normamps=114.0
new line.53113087 phases=3 bus1=82333355002414.1.2.3 bus2=82333375002414.1.2.3 r1=1.551 x1=0.49 length=0.02334 units=km normamps=114.0
new line.53113088 phases=3 bus1=82333215002414.1.2.3 bus2=82333205002414.1.2.3 r1=0.613 x1=0.45 length=0.019536 units=km normamps=203.0
new line.53113089 phases=3 bus1=82332795002414.1.2.3 bus2=82333215002414.1.2.3 r1=0.613 x1=0.45 length=0.036274 units=km normamps=203.0
new line.53113090 phases=3 bus1=82324025002414.1.2.3 bus2=82324455002414.1.2.3 r1=1.551 x1=0.49 length=0.035716 units=km normamps=114.0
new line.53113091 phases=3 bus1=82324275002414.1.2.3 bus2=82323825002414.1.2.3 r1=0.195 x1=0.4 length=0.024231 units=km normamps=419.0
new line.53113092 phases=3 bus1=82324165002414.1.2.3 bus2=82324285002414.1.2.3 r1=0.195 x1=0.4 length=0.034615 units=km normamps=419.0
new line.53113093 phases=3 bus1=82324285002414.1.2.3 bus2=82324275002414.1.2.3 r1=0.195 x1=0.4 length=0.02682 units=km normamps=419.0
new line.53113094 phases=3 bus1=82324045002414.1.2.3 bus2=82324215002414.1.2.3 r1=1.551 x1=0.49 length=0.037028 units=km normamps=114.0
new line.53113095 phases=3 bus1=82324225002414.1.2.3 bus2=82324215002414.1.2.3 r1=1.551 x1=0.49 length=0.022229 units=km normamps=114.0
new line.53113096 phases=3 bus1=82324065002414.1.2.3 bus2=82324075002414.1.2.3 r1=0.613 x1=0.45 length=0.036239 units=km normamps=203.0
new line.53113097 phases=3 bus1=82324085002414.1.2.3 bus2=94334795002414.1.2.3 r1=0.613 x1=0.45 length=0.01223 units=km normamps=203.0
new line.53113098 phases=3 bus1=82324095002414.1.2.3 bus2=82324105002414.1.2.3 r1=0.613 x1=0.45 length=0.032334 units=km normamps=203.0
new line.53113099 phases=3 bus1=82324155002414.1.2.3 bus2=82324165002414.1.2.3 r1=0.195 x1=0.4 length=0.036292 units=km normamps=419.0
new line.53113100 phases=3 bus1=82333035002414B.1.2.3 bus2=82333275002414.1.2.3 r1=1.551 x1=0.49 length=0.029855 units=km normamps=114.0
new line.53113101 phases=3 bus1=82333205002414.1.2.3 bus2=82333065002414.1.2.3 r1=0.613 x1=0.45 length=0.037179 units=km normamps=203.0
new line.53113102 phases=3 bus1=82333065002414.1.2.3 bus2=82333055002414.1.2.3 r1=0.613 x1=0.45 length=0.032109 units=km normamps=203.0
new line.53113103 phases=3 bus1=82333035002414.1.2.3 bus2=82333045002414.1.2.3 r1=0.613 x1=0.45 length=0.037445 units=km normamps=203.0
new line.53113104 phases=3 bus1=82333055002414.1.2.3 bus2=82333035002414.1.2.3 r1=0.613 x1=0.45 length=0.033528 units=km normamps=203.0
new line.53113105 phases=3 bus1=82332775002414.1.2.3 bus2=82331965002414.1.2.3 r1=0.613 x1=0.45 length=0.046412 units=km normamps=203.0
new line.53113106 phases=3 bus1=82331435002414.1.2.3 bus2=82332795002414.1.2.3 r1=0.613 x1=0.45 length=0.03182 units=km normamps=203.0
new line.53113107 phases=3 bus1=82332615002414.1.2.3 bus2=82332775002414.1.2.3 r1=0.613 x1=0.45 length=0.023541 units=km normamps=203.0
new line.53113108 phases=3 bus1=82332605002414.1.2.3 bus2=82332615002414.1.2.3 r1=0.613 x1=0.45 length=0.036022 units=km normamps=203.0
new line.53113109 phases=3 bus1=82335395002414.1.2.3 bus2=82335875002414.1.2.3 r1=0.613 x1=0.45 length=0.040088 units=km normamps=203.0
new line.53113110 phases=3 bus1=82330075002414.1.2.3 bus2=82335895002414.1.2.3 r1=0.613 x1=0.45 length=0.009203 units=km normamps=203.0
new line.53113111 phases=3 bus1=82335885002414.1.2.3 bus2=82335895002414.1.2.3 r1=0.613 x1=0.45 length=0.010277 units=km normamps=203.0
new line.53113112 phases=3 bus1=82335895002414.1.2.3 bus2=82335395002414.1.2.3 r1=0.613 x1=0.45 length=0.044138 units=km normamps=203.0
new line.53113113 phases=3 bus1=82335955002414.1.2.3 bus2=82335965002414.1.2.3 r1=0.975 x1=0.47 length=0.041702 units=km normamps=152.0
new line.53113114 phases=3 bus1=82335965002414.1.2.3 bus2=82335975002414.1.2.3 r1=0.975 x1=0.47 length=0.036498 units=km normamps=152.0
new line.53113115 phases=3 bus1=82335975002414.1.2.3 bus2=82335985002414B.1.2.3 r1=0.975 x1=0.47 length=0.039699 units=km normamps=152.0
new line.53113116 phases=3 bus1=82335985002414.1.2.3 bus2=82335895002414.1.2.3 r1=0.613 x1=0.45 length=0.030745 units=km normamps=203.0
new line.53113117 phases=3 bus1=82335405002414.1.2.3 bus2=82335885002414.1.2.3 r1=0.975 x1=0.47 length=0.026017 units=km normamps=152.0
new line.53113118 phases=3 bus1=82336205002414.1.2.3 bus2=82336215002414.1.2.3 r1=0.975 x1=0.47 length=0.024217 units=km normamps=152.0
new line.53113119 phases=3 bus1=82336215002414.1.2.3 bus2=82336235002414.1.2.3 r1=0.975 x1=0.47 length=0.011432 units=km normamps=152.0
new line.53113120 phases=3 bus1=82330335002414.1.2.3 bus2=82336225002414.1.2.3 r1=0.975 x1=0.47 length=0.023831 units=km normamps=152.0
new line.53113121 phases=3 bus1=82336225002414.1.2.3 bus2=82336215002414.1.2.3 r1=0.975 x1=0.47 length=0.009427 units=km normamps=152.0
new line.53113122 phases=3 bus1=82336215002414.1.2.3 bus2=82335955002414.1.2.3 r1=0.975 x1=0.47 length=0.029513 units=km normamps=152.0
new line.53113123 phases=3 bus1=82336235002414.1.2.3 bus2=82330345002414.1.2.3 r1=0.975 x1=0.47 length=0.025879 units=km normamps=152.0
new line.53113124 phases=3 bus1=82322045002414.1.2.3 bus2=82322035002414.1.2.3 r1=1.551 x1=0.49 length=0.022329 units=km normamps=114.0
new line.53113125 phases=3 bus1=82322085002414.1.2.3 bus2=82322045002414.1.2.3 r1=1.551 x1=0.49 length=0.039495 units=km normamps=114.0
new line.53113126 phases=3 bus1=82322095002414.1.2.3 bus2=82322085002414.1.2.3 r1=1.551 x1=0.49 length=0.03088 units=km normamps=114.0
new line.53113127 phases=3 bus1=82322115002414.1.2.3 bus2=82322105002414.1.2.3 r1=1.551 x1=0.49 length=0.044077 units=km normamps=114.0
new line.53113128 phases=3 bus1=82322105002414.1.2.3 bus2=82322095002414.1.2.3 r1=1.551 x1=0.49 length=0.030677 units=km normamps=114.0
new line.53113129 phases=3 bus1=82321975002414.1.2.3 bus2=82321965002414.1.2.3 r1=0.195 x1=0.4 length=0.029724 units=km normamps=419.0
new line.53113130 phases=3 bus1=82321915002414.1.2.3 bus2=82321975002414.1.2.3 r1=0.195 x1=0.4 length=0.040701 units=km normamps=419.0
new line.53113131 phases=3 bus1=82321985002414.1.2.3 bus2=82321975002414B.1.2.3 r1=1.551 x1=0.49 length=0.012312 units=km normamps=114.0
new line.53113132 phases=3 bus1=82321995002414.1.2.3 bus2=97812385002414.1.2.3 r1=1.551 x1=0.49 length=0.005377 units=km normamps=114.0
new line.53113133 phases=3 bus1=82322005002414.1.2.3 bus2=82321995002414.1.2.3 r1=1.551 x1=0.49 length=0.020577 units=km normamps=114.0
new line.53113134 phases=3 bus1=82322035002414.1.2.3 bus2=82322005002414.1.2.3 r1=1.551 x1=0.49 length=0.029786 units=km normamps=114.0
new line.53113135 phases=3 bus1=82321835002414.1.2.3 bus2=82321825002414.1.2.3 r1=0.195 x1=0.4 length=0.021349 units=km normamps=419.0
new line.53113136 phases=3 bus1=82321845002414.1.2.3 bus2=82321835002414.1.2.3 r1=0.195 x1=0.4 length=0.033633 units=km normamps=419.0
new line.53113137 phases=3 bus1=82321855002414.1.2.3 bus2=82321845002414.1.2.3 r1=0.195 x1=0.4 length=0.035256 units=km normamps=419.0
new line.53113138 phases=3 bus1=82321865002414.1.2.3 bus2=82321855002414.1.2.3 r1=0.195 x1=0.4 length=0.040098 units=km normamps=419.0
new line.53113139 phases=3 bus1=82321905002414.1.2.3 bus2=82321805002414.1.2.3 r1=0.195 x1=0.4 length=0.041637 units=km normamps=419.0
new line.53113140 phases=3 bus1=82321905002414.1.2.3 bus2=82321915002414.1.2.3 r1=0.195 x1=0.4 length=0.03842 units=km normamps=419.0
new line.53113141 phases=3 bus1=82321775002414.1.2.3 bus2=82321785002414.1.2.3 r1=0.975 x1=0.47 length=0.028648 units=km normamps=152.0
new line.53113142 phases=3 bus1=82321785002414.1.2.3 bus2=82321255002414.1.2.3 r1=0.975 x1=0.47 length=0.022519 units=km normamps=152.0
new line.53113143 phases=3 bus1=82321255002414.1.2.3 bus2=82321735002414.1.2.3 r1=0.975 x1=0.47 length=0.031689 units=km normamps=152.0
new line.53113144 phases=3 bus1=80501525002414B.1.2.3 bus2=82321335002414.1.2.3 r1=0.195 x1=0.4 length=0.017949 units=km normamps=419.0
new line.53113145 phases=3 bus1=82321715002414.1.2.3 bus2=82321805002414.1.2.3 r1=0.195 x1=0.4 length=0.050882 units=km normamps=419.0
new line.53113146 phases=3 bus1=82321815002414.1.2.3 bus2=82321725002414.1.2.3 r1=0.195 x1=0.4 length=0.038488 units=km normamps=419.0
new line.53113148 phases=3 bus1=82322775002414.1.2.3 bus2=82327425002414.1.2.3 r1=0.195 x1=0.4 length=0.046613 units=km normamps=419.0
new line.53113149 phases=3 bus1=82323215002414.1.2.3 bus2=82328105002414.1.2.3 r1=1.551 x1=0.49 length=0.043187 units=km normamps=114.0
new line.53113150 phases=3 bus1=82331205002414.1.2.3 bus2=82322485002414.1.2.3 r1=0.975 x1=0.47 length=0.022865 units=km normamps=152.0
new line.53113151 phases=1 bus1=82340065002414.1 bus2=82340055002414.1 r1=1.551 x1=0.47 length=0.070962 units=km normamps=125.0
new line.53113152 phases=1 bus1=82340075002414.1 bus2=82340065002414.1 r1=1.551 x1=0.47 length=0.004721 units=km normamps=125.0
new line.53113153 phases=1 bus1=82340055002414.1 bus2=82340095002414.1 r1=1.551 x1=0.47 length=0.020297 units=km normamps=125.0
new line.53113154 phases=1 bus1=82340095002414.1 bus2=82340085002414.1 r1=1.551 x1=0.47 length=0.135198 units=km normamps=125.0
new line.53113155 phases=1 bus1=82340125002414.1 bus2=82340135002414B.1 r1=1.551 x1=0.47 length=0.098778 units=km normamps=125.0
new line.53113156 phases=1 bus1=82340135002414.1 bus2=82340145002414.1 r1=1.551 x1=0.47 length=0.123314 units=km normamps=125.0
new line.53113157 phases=1 bus1=82340145002414.1 bus2=82340155002414.1 r1=1.551 x1=0.47 length=0.078424 units=km normamps=125.0
new line.53113158 phases=1 bus1=82339125002414.1 bus2=82340155002414.1 r1=1.551 x1=0.47 length=0.009571 units=km normamps=125.0
new line.53113159 phases=1 bus1=82340145002414.1 bus2=82339135002414.1 r1=1.551 x1=0.47 length=0.04122 units=km normamps=125.0
new line.53113160 phases=1 bus1=82339135002414B.1 bus2=82339145002414.1 r1=1.551 x1=0.47 length=0.099934 units=km normamps=125.0
new line.53113161 phases=1 bus1=82339145002414.1 bus2=82339155002414.1 r1=1.551 x1=0.47 length=0.098172 units=km normamps=125.0
new line.53113162 phases=1 bus1=82339165002414.1 bus2=82339155002414.1 r1=1.551 x1=0.47 length=0.00348 units=km normamps=125.0
new line.53113164 phases=1 bus1=82339205002414.1 bus2=82339195002414.1 r1=1.551 x1=0.47 length=0.007809 units=km normamps=125.0
new line.53113167 phases=1 bus1=82339225002414.1 bus2=83515395002414.1 r1=1.551 x1=0.47 length=0.089759 units=km normamps=125.0
new line.53113170 phases=1 bus1=82340175002414.1 bus2=82339225002414.1 r1=1.551 x1=0.47 length=0.095319 units=km normamps=125.0
new line.53113171 phases=1 bus1=82340185002414.1 bus2=82340175002414.1 r1=1.551 x1=0.47 length=0.007158 units=km normamps=125.0
new line.53113172 phases=1 bus1=82340105002414.1 bus2=82340115002414.1 r1=1.551 x1=0.47 length=0.120039 units=km normamps=125.0
new line.53113173 phases=1 bus1=82340115002414.1 bus2=82340125002414.1 r1=1.551 x1=0.47 length=0.111656 units=km normamps=125.0
new line.53113174 phases=1 bus1=82340055002414.1 bus2=82339175002414.1 r1=1.551 x1=0.47 length=0.075445 units=km normamps=125.0
new line.53113175 phases=1 bus1=82339175002414.1 bus2=82339185002414.1 r1=1.551 x1=0.47 length=0.075036 units=km normamps=125.0
new line.53113176 phases=1 bus1=82339225002414.1 bus2=82340195002414.1 r1=1.551 x1=0.47 length=0.044064 units=km normamps=125.0
new line.53113178 phases=1 bus1=82340215002414.1 bus2=82340225002414.1 r1=1.551 x1=0.47 length=0.029718 units=km normamps=125.0
new line.53113179 phases=1 bus1=82340245002414.1 bus2=82340255002414.1 r1=1.551 x1=0.47 length=0.14931 units=km normamps=125.0
new line.53113180 phases=1 bus1=82340265002414.1 bus2=82340255002414.1 r1=1.551 x1=0.47 length=0.008899 units=km normamps=125.0
new line.53113182 phases=1 bus1=82340285002414.1 bus2=82340255002414.1 r1=1.551 x1=0.47 length=0.045774 units=km normamps=125.0
new line.53113183 phases=1 bus1=82339265002414.1 bus2=82339255002414.1 r1=1.551 x1=0.47 length=0.130388 units=km normamps=125.0
new line.53113184 phases=1 bus1=82339275002414.1 bus2=82339265002414.1 r1=1.551 x1=0.47 length=0.007946 units=km normamps=125.0
new line.53113185 phases=1 bus1=82340225002414.1 bus2=82340235002414.1 r1=1.551 x1=0.47 length=0.111856 units=km normamps=125.0
new line.53113186 phases=1 bus1=82340235002414.1 bus2=82340245002414.1 r1=1.551 x1=0.47 length=0.096127 units=km normamps=125.0
new line.53113187 phases=1 bus1=82339255002414.1 bus2=82340285002414.1 r1=1.551 x1=0.47 length=0.097914 units=km normamps=125.0
new line.53113188 phases=1 bus1=82339355002414.1 bus2=82339345002414.1 r1=1.551 x1=0.47 length=0.130279 units=km normamps=125.0
new line.53113189 phases=1 bus1=82339365002414.1 bus2=82339355002414.1 r1=1.551 x1=0.47 length=0.008857 units=km normamps=125.0
new line.53113190 phases=1 bus1=82340285002414.1 bus2=82339285002414.1 r1=1.551 x1=0.47 length=0.099262 units=km normamps=125.0
new line.53113191 phases=1 bus1=82339285002414.1 bus2=82339295002414.1 r1=1.551 x1=0.47 length=0.101523 units=km normamps=125.0
new line.53113192 phases=1 bus1=82339295002414.1 bus2=82339305002414.1 r1=1.551 x1=0.47 length=0.154088 units=km normamps=125.0
new line.53113193 phases=1 bus1=82339305002414.1 bus2=82339315002414.1 r1=1.551 x1=0.47 length=0.154146 units=km normamps=125.0
new line.53113194 phases=1 bus1=82339325002414.1 bus2=82339315002414.1 r1=1.551 x1=0.47 length=0.178347 units=km normamps=125.0
new line.53113195 phases=1 bus1=82339325002414.1 bus2=82339335002414.1 r1=1.551 x1=0.47 length=0.153172 units=km normamps=125.0
new line.53113196 phases=1 bus1=82339335002414.1 bus2=82339345002414.1 r1=1.551 x1=0.47 length=0.13535 units=km normamps=125.0
new line.53113197 phases=1 bus1=82339335002414.1 bus2=82339375002414.1 r1=1.551 x1=0.47 length=0.297826 units=km normamps=125.0
new line.53113198 phases=1 bus1=82339375002414.1 bus2=82340295002414.1 r1=1.551 x1=0.47 length=0.138029 units=km normamps=125.0
new line.53113199 phases=1 bus1=82340295002414.1 bus2=82340305002414.1 r1=1.551 x1=0.47 length=0.180625 units=km normamps=125.0
new line.53113202 phases=1 bus1=82340115002414.1 bus2=82340335002414.1 r1=1.551 x1=0.47 length=0.109598 units=km normamps=125.0
new line.53113203 phases=1 bus1=82340335002414.1 bus2=82340345002414.1 r1=1.551 x1=0.47 length=0.094603 units=km normamps=125.0
new line.53113204 phases=1 bus1=82340355002414.1 bus2=82340135002414.1 r1=1.551 x1=0.47 length=0.140496 units=km normamps=125.0
new line.53113205 phases=1 bus1=82340365002414.1 bus2=82340355002414.1 r1=1.551 x1=0.47 length=0.119956 units=km normamps=125.0
new line.53113206 phases=1 bus1=82340375002414.1 bus2=82340365002414.1 r1=1.551 x1=0.47 length=0.16853 units=km normamps=125.0
new line.53113207 phases=1 bus1=82340215002414.1 bus2=82340375002414.1 r1=1.551 x1=0.47 length=0.058981 units=km normamps=125.0
new line.53113208 phases=1 bus1=82340225002414.1 bus2=82340385002414.1 r1=1.551 x1=0.47 length=0.263736 units=km normamps=125.0
new line.53113209 phases=1 bus1=82340385002414.1 bus2=82340395002414.1 r1=1.551 x1=0.47 length=0.09708 units=km normamps=125.0
new line.53113210 phases=1 bus1=82340215002414.1 bus2=96775315002414.1 r1=1.551 x1=0.47 length=0.080785 units=km normamps=125.0
new line.53113211 phases=1 bus1=82340405002414.1 bus2=82340415002414.1 r1=1.551 x1=0.47 length=0.104512 units=km normamps=125.0
new line.53113212 phases=1 bus1=82339385002414.1 bus2=82340415002414.1 r1=1.551 x1=0.47 length=0.008365 units=km normamps=125.0
new line.53113213 phases=1 bus1=82340405002414.1 bus2=82339395002414.1 r1=1.551 x1=0.47 length=0.234855 units=km normamps=125.0
new line.53113214 phases=1 bus1=82339395002414.1 bus2=82339405002414.1 r1=1.551 x1=0.47 length=0.305816 units=km normamps=125.0
new line.53113215 phases=1 bus1=82339405002414B.1 bus2=82339415002414.1 r1=1.551 x1=0.47 length=0.030906 units=km normamps=125.0
new line.53113216 phases=1 bus1=82339425002414.1 bus2=82339415002414.1 r1=1.551 x1=0.47 length=0.00746 units=km normamps=125.0
new line.53113217 phases=1 bus1=82339405002414.1 bus2=82339435002414.1 r1=1.551 x1=0.47 length=0.085981 units=km normamps=125.0
new line.53113218 phases=1 bus1=82339435002414.1 bus2=82339445002414.1 r1=1.551 x1=0.47 length=0.099813 units=km normamps=125.0
new line.53113219 phases=1 bus1=82339445002414.1 bus2=82339455002414.1 r1=1.551 x1=0.47 length=0.076742 units=km normamps=125.0
new line.53113220 phases=1 bus1=82339455002414.1 bus2=82339465002414.1 r1=1.551 x1=0.47 length=0.139635 units=km normamps=125.0
new line.53113221 phases=1 bus1=82339465002414.1 bus2=82339475002414.1 r1=1.551 x1=0.47 length=0.078807 units=km normamps=125.0
new line.53113222 phases=1 bus1=82339475002414.1 bus2=82339485002414.1 r1=1.551 x1=0.47 length=0.039765 units=km normamps=125.0
new line.53113223 phases=1 bus1=82339495002414.1 bus2=82339485002414.1 r1=1.551 x1=0.47 length=0.005729 units=km normamps=125.0
new line.53113224 phases=1 bus1=82339455002414.1 bus2=82339505002414.1 r1=1.551 x1=0.47 length=0.062995 units=km normamps=125.0
new line.53113225 phases=1 bus1=82339505002414.1 bus2=82340425002414.1 r1=1.551 x1=0.47 length=0.085362 units=km normamps=125.0
new line.53113226 phases=1 bus1=82340425002414.1 bus2=82340435002414.1 r1=1.551 x1=0.47 length=0.088947 units=km normamps=125.0
new line.53113227 phases=1 bus1=82340435002414.1 bus2=82340445002414.1 r1=1.551 x1=0.47 length=0.210452 units=km normamps=125.0
new line.53113228 phases=1 bus1=82340445002414.1 bus2=82340455002414.1 r1=1.551 x1=0.47 length=0.070907 units=km normamps=125.0
new line.53113229 phases=1 bus1=82340455002414.1 bus2=82340465002414.1 r1=1.551 x1=0.47 length=0.168055 units=km normamps=125.0
new line.53113230 phases=1 bus1=82340465002414.1 bus2=82340475002414.1 r1=1.551 x1=0.47 length=0.10461 units=km normamps=125.0
new line.53113231 phases=1 bus1=82340475002414.1 bus2=82340485002414.1 r1=1.551 x1=0.47 length=0.042949 units=km normamps=125.0
new line.53113232 phases=1 bus1=82340495002414.1 bus2=82340485002414.1 r1=1.551 x1=0.47 length=0.028893 units=km normamps=125.0
new line.53113236 phases=1 bus1=82340535002414.1 bus2=82340145002414.1 r1=1.551 x1=0.47 length=0.286125 units=km normamps=125.0
new line.53113237 phases=1 bus1=82340545002414.1 bus2=82340085002414.1 r1=1.551 x1=0.47 length=0.012474 units=km normamps=125.0
new line.53113265 phases=1 bus1=82340105002414.1 bus2=82340055002414.1 r1=1.551 x1=0.47 length=0.054349 units=km normamps=125.0
new line.53113267 phases=3 bus1=82343755002414.1.2.3 bus2=82345455002414.1.2.3 r1=0.975 x1=0.47 length=0.04627 units=km normamps=152.0
new line.53113268 phases=1 bus1=82346155002414.1 bus2=82346165002414.1 r1=1.551 x1=0.47 length=0.008875 units=km normamps=125.0
new line.53113269 phases=1 bus1=82346165002414B.1 bus2=94594215002414.1 r1=1.551 x1=0.47 length=0.015498 units=km normamps=125.0
new line.53113270 phases=1 bus1=82346185002414.1 bus2=82346175002414.1 r1=1.551 x1=0.47 length=0.032224 units=km normamps=125.0
new line.53113271 phases=1 bus1=82340535002414.1 bus2=82346185002414.1 r1=1.551 x1=0.47 length=0.044311 units=km normamps=125.0
new line.53113272 phases=3 bus1=82346315002414.1.2.3 bus2=82346305002414.1.2.3 r1=1.551 x1=0.49 length=0.055279 units=km normamps=114.0
new line.53113273 phases=3 bus1=82346325002414.1.2.3 bus2=82346315002414.1.2.3 r1=1.551 x1=0.49 length=0.007416 units=km normamps=114.0
new line.53113274 phases=3 bus1=82346855002414.1.2.3 bus2=82346865002414.1.2.3 r1=0.195 x1=0.4 length=0.040968 units=km normamps=419.0
new line.53113275 phases=3 bus1=82346155002414.1.2.3 bus2=82351105002414.1.2.3 r1=1.551 x1=0.49 length=0.045457 units=km normamps=114.0
new line.53113276 phases=3 bus1=82351105002414.1.2.3 bus2=82351095002414.1.2.3 r1=1.551 x1=0.49 length=0.03292 units=km normamps=114.0
new line.53113277 phases=3 bus1=82351145002414.1.2.3 bus2=82351155002414.1.2.3 r1=0.195 x1=0.4 length=0.055775 units=km normamps=419.0
new line.53113278 phases=3 bus1=82351155002414.1.2.3 bus2=82351165002414.1.2.3 r1=0.195 x1=0.4 length=0.051657 units=km normamps=419.0
new line.53113279 phases=3 bus1=82351165002414.1.2.3 bus2=82351175002414.1.2.3 r1=0.195 x1=0.4 length=0.073914 units=km normamps=419.0
...

! 3. Chaves Seccionadoras MT
new line.SC_5289341 phases=3 bus1=82327555002414.1.2.3 bus2=82327555002414B.1.2.3 switch=y r1=1e-4 x1=1e-4 length=0.001 units=km
new line.SC_5289342 phases=3 bus1=82328655002414.1.2.3 bus2=82328655002414B.1.2.3 switch=y r1=1e-4 x1=1e-4 length=0.001 units=km
new line.SC_5289343 phases=3 bus1=82325935002414.1.2.3 bus2=82325935002414B.1.2.3 switch=y r1=1e-4 x1=1e-4 length=0.001 units=km
new line.SC_5289344 phases=3 bus1=82338825002414.1.2.3 bus2=82338825002414B.1.2.3 switch=y r1=1e-4 x1=1e-4 length=0.001 units=km
new line.SC_5289345 phases=3 bus1=82340815002414.1.2.3 bus2=82340815002414B.1.2.3 switch=y r1=1e-4 x1=1e-4 length=0.001 units=km
new line.SC_5289346 phases=3 bus1=82341945002414.1.2.3 bus2=82341945002414B.1.2.3 switch=y r1=1e-4 x1=1e-4 length=0.001 units=km
new line.SC_5289347 phases=3 bus1=82351245002414.1.2.3 bus2=82351245002414B.1.2.3 switch=y r1=1e-4 x1=1e-4 length=0.001 units=km
new line.SC_5289348 phases=3 bus1=82182735002414.1.2.3 bus2=82182735002414B.1.2.3 switch=y r1=1e-4 x1=1e-4 length=0.001 units=km
new line.SC_5289349 phases=3 bus1=80501525002414.1.2.3 bus2=80501525002414B.1.2.3 switch=y r1=1e-4 x1=1e-4 length=0.001 units=km
new line.SC_5289350 phases=3 bus1=82182835002414.1.2.3 bus2=82182835002414B.1.2.3 switch=y r1=1e-4 x1=1e-4 length=0.001 units=km
new line.SC_5289351 phases=3 bus1=82321345002414.1.2.3 bus2=82321345002414B.1.2.3 switch=y r1=1e-4 x1=1e-4 length=0.001 units=km
new line.SC_5289353 phases=3 bus1=82323935002414.1.2.3 bus2=82323935002414B.1.2.3 switch=y r1=1e-4 x1=1e-4 length=0.001 units=km
new line.SC_5289355 phases=3 bus1=80439935002414.1.2.3 bus2=80439935002414B.1.2.3 switch=y r1=1e-4 x1=1e-4 length=0.001 units=km
new line.SC_5289399 phases=3 bus1=82327485002414.1.2.3 bus2=82327485002414B.1.2.3 switch=y r1=1e-4 x1=1e-4 length=0.001 units=km
new line.SC_5289401 phases=3 bus1=82334215002414.1.2.3 bus2=82334215002414B.1.2.3 switch=y r1=1e-4 x1=1e-4 length=0.001 units=km
new line.SC_5289403 phases=3 bus1=82335985002414.1.2.3 bus2=82335985002414B.1.2.3 switch=y r1=1e-4 x1=1e-4 length=0.001 units=km
new line.SC_5289404 phases=3 bus1=82336685002414.1.2.3 bus2=82336685002414B.1.2.3 switch=y r1=1e-4 x1=1e-4 length=0.001 units=km
new line.SC_5289405 phases=3 bus1=82338875002414.1.2.3 bus2=82338875002414B.1.2.3 switch=y r1=1e-4 x1=1e-4 length=0.001 units=km
new line.SC_5289406 phases=3 bus1=82339865002414.1.2.3 bus2=82339865002414B.1.2.3 switch=y r1=1e-4 x1=1e-4 length=0.001 units=km
new line.SC_5289407 phases=3 bus1=82337195002414.1.2.3 bus2=82337195002414B.1.2.3 switch=y r1=1e-4 x1=1e-4 length=0.001 units=km
new line.SC_5289409 phases=1 bus1=82339405002414.1 bus2=82339405002414B.1 switch=y r1=1e-4 x1=1e-4 length=0.001 units=km
new line.SC_5289411 phases=1 bus1=82340135002414.1 bus2=82340135002414B.1 switch=y r1=1e-4 x1=1e-4 length=0.001 units=km
new line.SC_5289418 phases=1 bus1=82339135002414.1 bus2=82339135002414B.1 switch=y r1=1e-4 x1=1e-4 length=0.001 units=km
new line.SC_5289426 phases=3 bus1=82340705002414.1.2.3 bus2=82340705002414B.1.2.3 switch=y r1=1e-4 x1=1e-4 length=0.001 units=km
new line.SC_5289429 phases=3 bus1=82342745002414.1.2.3 bus2=82342745002414B.1.2.3 switch=y r1=1e-4 x1=1e-4 length=0.001 units=km
new line.SC_5289434 phases=3 bus1=82346535002414.1.2.3 bus2=82346535002414B.1.2.3 switch=y r1=1e-4 x1=1e-4 length=0.001 units=km
new line.SC_5289435 phases=3 bus1=82348475002414.1.2.3 bus2=82348475002414B.1.2.3 switch=y r1=1e-4 x1=1e-4 length=0.001 units=km
new line.SC_5289437 phases=3 bus1=82349425002414.1.2.3 bus2=82349425002414B.1.2.3 switch=y r1=1e-4 x1=1e-4 length=0.001 units=km
new line.SC_5289438 phases=1 bus1=82346165002414.1 bus2=82346165002414B.1 switch=y r1=1e-4 x1=1e-4 length=0.001 units=km
new line.SC_5289440 phases=3 bus1=82352925002414.1.2.3 bus2=82352925002414B.1.2.3 switch=y r1=1e-4 x1=1e-4 length=0.001 units=km
new line.SC_5289441 phases=3 bus1=82182155002414.1.2.3 bus2=82182155002414B.1.2.3 switch=y r1=1e-4 x1=1e-4 length=0.001 units=km
new line.SC_5289443 phases=3 bus1=82321035002414.1.2.3 bus2=82321035002414B.1.2.3 switch=y r1=1e-4 x1=1e-4 length=0.001 units=km
new line.SC_5289445 phases=3 bus1=82322705002414.1.2.3 bus2=82322705002414B.1.2.3 switch=y r1=1e-4 x1=1e-4 length=0.001 units=km
new line.SC_5289446 phases=3 bus1=82322785002414.1.2.3 bus2=82322785002414B.1.2.3 switch=y r1=1e-4 x1=1e-4 length=0.001 units=km
new line.SC_5289447 phases=3 bus1=82335125002414.1.2.3 bus2=82335125002414B.1.2.3 switch=y r1=1e-4 x1=1e-4 length=0.001 units=km
new line.SC_5289448 phases=3 bus1=82329005002414.1.2.3 bus2=82329005002414B.1.2.3 switch=y r1=1e-4 x1=1e-4 length=0.001 units=km
new line.SC_5289451 phases=3 bus1=82330145002414.1.2.3 bus2=82330145002414B.1.2.3 switch=y r1=1e-4 x1=1e-4 length=0.001 units=km
new line.SC_5289458 phases=3 bus1=82328445002414.1.2.3 bus2=82328445002414B.1.2.3 switch=y r1=1e-4 x1=1e-4 length=0.001 units=km
new line.SC_5289459 phases=3 bus1=82333035002414.1.2.3 bus2=82333035002414B.1.2.3 switch=y r1=1e-4 x1=1e-4 length=0.001 units=km
new line.SC_5289460 phases=3 bus1=82331425002414.1.2.3 bus2=82331425002414B.1.2.3 switch=y r1=1e-4 x1=1e-4 length=0.001 units=km
new line.SC_5289461 phases=3 bus1=82331435002414.1.2.3 bus2=82331435002414B.1.2.3 switch=y r1=1e-4 x1=1e-4 length=0.001 units=km
new line.SC_5289463 phases=1 bus1=82346525002414.2 bus2=82346525002414B.2 switch=y r1=1e-4 x1=1e-4 length=0.001 units=km
new line.SC_5289468 phases=3 bus1=82353395002414.1.2.3 bus2=82353395002414B.1.2.3 switch=y r1=1e-4 x1=1e-4 length=0.001 units=km
new line.SC_5289474 phases=3 bus1=82353345002414.1.2.3 bus2=82353345002414B.1.2.3 switch=y r1=1e-4 x1=1e-4 length=0.001 units=km
new line.SC_5297957 phases=3 bus1=82353125002414.1.2.3 bus2=82353125002414B.1.2.3 switch=y r1=1e-4 x1=1e-4 length=0.001 units=km
new line.SC_5314051 phases=3 bus1=82346865002414.1.2.3 bus2=82346865002414B.1.2.3 switch=y r1=1e-4 x1=1e-4 length=0.001 units=km
new line.SC_5314113 phases=3 bus1=82340765002414.1.2.3 bus2=82340765002414B.1.2.3 switch=y r1=1e-4 x1=1e-4 length=0.001 units=km
new line.SC_5339590 phases=3 bus1=82321175002414.1.2.3 bus2=82321175002414B.1.2.3 switch=y r1=1e-4 x1=1e-4 length=0.001 units=km
new line.SC_5545916 phases=3 bus1=93759915002414.1.2.3 bus2=93759915002414B.1.2.3 switch=y r1=1e-4 x1=1e-4 length=0.001 units=km
new line.SC_5545919 phases=3 bus1=89978975002414.1.2.3 bus2=89978975002414B.1.2.3 switch=y r1=1e-4 x1=1e-4 length=0.001 units=km
new line.SC_5545921 phases=3 bus1=89978965002414.1.2.3 bus2=89978965002414B.1.2.3 switch=y r1=1e-4 x1=1e-4 length=0.001 units=km
new line.SC_5545922 phases=3 bus1=93760415002414.1.2.3 bus2=93760415002414B.1.2.3 switch=y r1=1e-4 x1=1e-4 length=0.001 units=km
open line.SC_5545922 1
new line.SC_5546323 phases=3 bus1=93776075002414.1.2.3 bus2=93776075002414B.1.2.3 switch=y r1=1e-4 x1=1e-4 length=0.001 units=km
new line.SC_5546325 phases=3 bus1=93285875002414.1.2.3 bus2=93285875002414B.1.2.3 switch=y r1=1e-4 x1=1e-4 length=0.001 units=km
open line.SC_5546325 1
new line.SC_5549432 phases=3 bus1=82322775002414.1.2.3 bus2=82322775002414B.1.2.3 switch=y r1=1e-4 x1=1e-4 length=0.001 units=km
new line.SC_5586993 phases=3 bus1=82323395002414.1.2.3 bus2=82323395002414B.1.2.3 switch=y r1=1e-4 x1=1e-4 length=0.001 units=km
new line.SC_5589858 phases=3 bus1=91364115002414.1.2.3 bus2=91364115002414B.1.2.3 switch=y r1=1e-4 x1=1e-4 length=0.001 units=km
new line.SC_5594729 phases=3 bus1=82328395002414.1.2.3 bus2=82328395002414B.1.2.3 switch=y r1=1e-4 x1=1e-4 length=0.001 units=km
new line.SC_5620780 phases=3 bus1=82331315002414.1.2.3 bus2=82331315002414B.1.2.3 switch=y r1=1e-4 x1=1e-4 length=0.001 units=km
new line.SC_5657980 phases=3 bus1=93467785002414.1.2.3 bus2=93467785002414B.1.2.3 switch=y r1=1e-4 x1=1e-4 length=0.001 units=km
new line.SC_5658131 phases=3 bus1=93470015002414.1.2.3 bus2=93470015002414B.1.2.3 switch=y r1=1e-4 x1=1e-4 length=0.001 units=km
open line.SC_5658131 1
new line.SC_5658638 phases=3 bus1=82334255002414.1.2.3 bus2=82334255002414B.1.2.3 switch=y r1=1e-4 x1=1e-4 length=0.001 units=km
new line.SC_5662374 phases=3 bus1=89096425002414.1.2.3 bus2=89096425002414B.1.2.3 switch=y r1=1e-4 x1=1e-4 length=0.001 units=km
new line.SC_5662710 phases=3 bus1=89097375002414.1.2.3 bus2=89097375002414B.1.2.3 switch=y r1=1e-4 x1=1e-4 length=0.001 units=km
new line.SC_5681886 phases=3 bus1=82342385002414.1.2.3 bus2=82342385002414B.1.2.3 switch=y r1=1e-4 x1=1e-4 length=0.001 units=km
new line.SC_5682081 phases=3 bus1=82206885002414.1.2.3 bus2=82206885002414B.1.2.3 switch=y r1=1e-4 x1=1e-4 length=0.001 units=km
new line.SC_5688965 phases=3 bus1=94334785002414.1.2.3 bus2=94334785002414B.1.2.3 switch=y r1=1e-4 x1=1e-4 length=0.001 units=km
new line.SC_5688969 phases=3 bus1=94334895002414.1.2.3 bus2=94334895002414B.1.2.3 switch=y r1=1e-4 x1=1e-4 length=0.001 units=km
open line.SC_5688969 1
new line.SC_5690615 phases=3 bus1=94364625002414.1.2.3 bus2=94364625002414B.1.2.3 switch=y r1=1e-4 x1=1e-4 length=0.001 units=km
new line.SC_5690616 phases=3 bus1=94364515002414.1.2.3 bus2=94364515002414B.1.2.3 switch=y r1=1e-4 x1=1e-4 length=0.001 units=km
open line.SC_5690616 1
new line.SC_5690729 phases=3 bus1=94369275002414.1.2.3 bus2=94369275002414B.1.2.3 switch=y r1=1e-4 x1=1e-4 length=0.001 units=km
new line.SC_5690730 phases=3 bus1=94369305002414.1.2.3 bus2=94369305002414B.1.2.3 switch=y r1=1e-4 x1=1e-4 length=0.001 units=km
open line.SC_5690730 1
new line.SC_5690935 phases=3 bus1=94371905002414.1.2.3 bus2=94371905002414B.1.2.3 switch=y r1=1e-4 x1=1e-4 length=0.001 units=km
new line.SC_5690936 phases=3 bus1=94372145002414.1.2.3 bus2=94372145002414B.1.2.3 switch=y r1=1e-4 x1=1e-4 length=0.001 units=km
open line.SC_5690936 1
new line.SC_5691271 phases=3 bus1=94381355002414.1.2.3 bus2=94381355002414B.1.2.3 switch=y r1=1e-4 x1=1e-4 length=0.001 units=km
new line.SC_5691272 phases=3 bus1=94381165002414.1.2.3 bus2=94381165002414B.1.2.3 switch=y r1=1e-4 x1=1e-4 length=0.001 units=km
open line.SC_5691272 1
new line.SC_5692851 phases=3 bus1=94417945002414.1.2.3 bus2=94417945002414B.1.2.3 switch=y r1=1e-4 x1=1e-4 length=0.001 units=km
new line.SC_5692870 phases=3 bus1=94417985002414.1.2.3 bus2=94417985002414B.1.2.3 switch=y r1=1e-4 x1=1e-4 length=0.001 units=km
open line.SC_5692870 1
new line.SC_5693821 phases=3 bus1=94433535002414.1.2.3 bus2=94433535002414B.1.2.3 switch=y r1=1e-4 x1=1e-4 length=0.001 units=km
open line.SC_5693821 1
new line.SC_5693822 phases=3 bus1=94433785002414.1.2.3 bus2=94433785002414B.1.2.3 switch=y r1=1e-4 x1=1e-4 length=0.001 units=km
open line.SC_5693822 1
new line.SC_5694329 phases=3 bus1=94437145002414.1.2.3 bus2=94437145002414B.1.2.3 switch=y r1=1e-4 x1=1e-4 length=0.001 units=km
new line.SC_5694349 phases=3 bus1=94437545002414.1.2.3 bus2=94437545002414B.1.2.3 switch=y r1=1e-4 x1=1e-4 length=0.001 units=km
open line.SC_5694349 1
new line.SC_5696723 phases=3 bus1=94455455002414.1.2.3 bus2=94455455002414B.1.2.3 switch=y r1=1e-4 x1=1e-4 length=0.001 units=km
new line.SC_5696724 phases=3 bus1=94475435002414.1.2.3 bus2=94475435002414B.1.2.3 switch=y r1=1e-4 x1=1e-4 length=0.001 units=km
open line.SC_5696724 1
new line.SC_5704021 phases=1 bus1=94594065002414.1 bus2=94594065002414B.1 switch=y r1=1e-4 x1=1e-4 length=0.001 units=km
new line.SC_5704022 phases=1 bus1=94594235002414.1 bus2=94594235002414B.1 switch=y r1=1e-4 x1=1e-4 length=0.001 units=km
open line.SC_5704022 1
new line.SC_5720355 phases=3 bus1=95192355002414.1.2.3 bus2=95192355002414B.1.2.3 switch=y r1=1e-4 x1=1e-4 length=0.001 units=km
new line.SC_5720356 phases=3 bus1=95193175002414.1.2.3 bus2=95193175002414B.1.2.3 switch=y r1=1e-4 x1=1e-4 length=0.001 units=km
new line.SC_5720357 phases=1 bus1=95193305002414.1 bus2=95193305002414B.1 switch=y r1=1e-4 x1=1e-4 length=0.001 units=km
new line.SC_5720358 phases=1 bus1=95193065002414.2 bus2=95193065002414B.2 switch=y r1=1e-4 x1=1e-4 length=0.001 units=km
new line.SC_5720359 phases=3 bus1=95191825002414.1.2.3 bus2=95191825002414B.1.2.3 switch=y r1=1e-4 x1=1e-4 length=0.001 units=km
new line.SC_5720360 phases=3 bus1=95188285002414.1.2.3 bus2=95188285002414B.1.2.3 switch=y r1=1e-4 x1=1e-4 length=0.001 units=km
new line.SC_5721460 phases=3 bus1=95227335002414.1.2.3 bus2=95227335002414B.1.2.3 switch=y r1=1e-4 x1=1e-4 length=0.001 units=km
new line.SC_5721461 phases=3 bus1=95227365002414.1.2.3 bus2=95227365002414B.1.2.3 switch=y r1=1e-4 x1=1e-4 length=0.001 units=km
open line.SC_5721461 1
new line.SC_5737551 phases=3 bus1=95920725002414.1.2.3 bus2=95920725002414B.1.2.3 switch=y r1=1e-4 x1=1e-4 length=0.001 units=km
open line.SC_5737551 1
new line.SC_5737552 phases=3 bus1=95920685002414.1.2.3 bus2=95920685002414B.1.2.3 switch=y r1=1e-4 x1=1e-4 length=0.001 units=km
new line.SC_5737639 phases=3 bus1=82348485002414.1.2.3 bus2=82348485002414B.1.2.3 switch=y r1=1e-4 x1=1e-4 length=0.001 units=km
new line.SC_5758672 phases=3 bus1=96986535002414.1.2.3 bus2=96986535002414B.1.2.3 switch=y r1=1e-4 x1=1e-4 length=0.001 units=km
open line.SC_5758672 1
new line.SC_5758673 phases=3 bus1=96933015002414.1.2.3 bus2=96933015002414B.1.2.3 switch=y r1=1e-4 x1=1e-4 length=0.001 units=km
open line.SC_5758673 1
new line.SC_5780648 phases=3 bus1=97807975002414.1.2.3 bus2=97807975002414B.1.2.3 switch=y r1=1e-4 x1=1e-4 length=0.001 units=km
open line.SC_5780648 1
new line.SC_5780649 phases=3 bus1=97807945002414.1.2.3 bus2=97807945002414B.1.2.3 switch=y r1=1e-4 x1=1e-4 length=0.001 units=km
new line.SC_5780913 phases=3 bus1=97812375002414.1.2.3 bus2=97812375002414B.1.2.3 switch=y r1=1e-4 x1=1e-4 length=0.001 units=km
new line.SC_5780914 phases=3 bus1=97812425002414.1.2.3 bus2=97812425002414B.1.2.3 switch=y r1=1e-4 x1=1e-4 length=0.001 units=km
open line.SC_5780914 1
new line.SC_5782382 phases=3 bus1=97864755002414.1.2.3 bus2=97864755002414B.1.2.3 switch=y r1=1e-4 x1=1e-4 length=0.001 units=km
open line.SC_5782382 1
new line.SC_5782383 phases=3 bus1=97864725002414.1.2.3 bus2=97864725002414B.1.2.3 switch=y r1=1e-4 x1=1e-4 length=0.001 units=km
new line.SC_5782968 phases=3 bus1=82343465002414.1.2.3 bus2=82343465002414B.1.2.3 switch=y r1=1e-4 x1=1e-4 length=0.001 units=km
new line.SC_5782970 phases=3 bus1=82321975002414.1.2.3 bus2=82321975002414B.1.2.3 switch=y r1=1e-4 x1=1e-4 length=0.001 units=km
new line.SC_5790402 phases=3 bus1=98261885002414.1.2.3 bus2=98261885002414B.1.2.3 switch=y r1=1e-4 x1=1e-4 length=0.001 units=km
new line.SC_5790403 phases=3 bus1=98261945002414.1.2.3 bus2=98261945002414B.1.2.3 switch=y r1=1e-4 x1=1e-4 length=0.001 units=km
open line.SC_5790403 1
new line.SC_5793224 phases=3 bus1=98262195002414.1.2.3 bus2=98262195002414B.1.2.3 switch=y r1=1e-4 x1=1e-4 length=0.001 units=km
new line.SC_5793936 phases=3 bus1=98416235002414.1.2.3 bus2=98416235002414B.1.2.3 switch=y r1=1e-4 x1=1e-4 length=0.001 units=km
new line.SC_5793939 phases=3 bus1=98416115002414.1.2.3 bus2=98416115002414B.1.2.3 switch=y r1=1e-4 x1=1e-4 length=0.001 units=km
open line.SC_5793939 1
new line.SC_DA0000292 phases=3 bus1=I888888103115002414.1.2.3 bus2=I888888103115002414B.1.2.3 switch=y r1=1e-4 x1=1e-4 length=0.001 units=km
new line.SC_SA0002800 phases=3 bus1=I888888313595002414.1.2.3 bus2=I888888313595002414B.1.2.3 switch=y r1=1e-4 x1=1e-4 length=0.001 units=km
new line.SC_SA0002801 phases=3 bus1=I888888477735002414.1.2.3 bus2=I888888477735002414B.1.2.3 switch=y r1=1e-4 x1=1e-4 length=0.001 units=km
new line.SC_SA0002802 phases=3 bus1=I888888313605002414.1.2.3 bus2=I888888477720B.1.2.3 switch=y r1=1e-4 x1=1e-4 length=0.001 units=km

! 5. Transformadores MT/BT de Distribuicao
new transformer.UNTRMT_5289358 phases=1 windings=3 %r=2.08 xhl=1.39 xht=1.39 xlt=0.97 kva=10.0
~ wdg=1 bus=82339385002414.1 conn=wye kv=7.96 kva=10.0 %r=1.04
~ wdg=2 bus=82339385289358.1.0 conn=wye kv=0.22 kva=10.0 %r=1.04
~ wdg=3 bus=82339385289358.0.2 conn=wye kv=0.22 kva=10.0 %r=1.04

new transformer.UNTRMT_5289365 phases=1 windings=3 %r=2.08 xhl=1.39 xht=1.39 xlt=0.97 kva=10.0
~ wdg=1 bus=82339425002414.1 conn=wye kv=7.96 kva=10.0 %r=1.04
~ wdg=2 bus=82339425289365.1.0 conn=wye kv=0.22 kva=10.0 %r=1.04
~ wdg=3 bus=82339425289365.0.2 conn=wye kv=0.22 kva=10.0 %r=1.04

new transformer.UNTRMT_5289366 phases=1 windings=3 %r=1.97 xhl=1.55 xht=1.55 xlt=1.08 kva=15.0
~ wdg=1 bus=82339495002414.1 conn=wye kv=7.96 kva=15.0 %r=0.985
~ wdg=2 bus=82339495289366.1.0 conn=wye kv=0.22 kva=15.0 %r=0.985
~ wdg=3 bus=82339495289366.0.2 conn=wye kv=0.22 kva=15.0 %r=0.985

new transformer.UNTRMT_5289367 phases=1 windings=3 %r=1.75 xhl=1.79 xht=1.79 xlt=1.25 kva=37.0
~ wdg=1 bus=82340495002414.1 conn=wye kv=7.96 kva=37.0 %r=0.875
~ wdg=2 bus=82340495289367.1.0 conn=wye kv=0.22 kva=37.0 %r=0.875
~ wdg=3 bus=82340495289367.0.2 conn=wye kv=0.22 kva=37.0 %r=0.875

new transformer.UNTRMT_5289368 phases=1 windings=3 %r=1.97 xhl=1.55 xht=1.55 xlt=1.08 kva=15.0
~ wdg=1 bus=82340075002414.1 conn=wye kv=7.96 kva=15.0 %r=0.985
~ wdg=2 bus=82340075289368.1.0 conn=wye kv=0.22 kva=15.0 %r=0.985
~ wdg=3 bus=82340075289368.0.2 conn=wye kv=0.22 kva=15.0 %r=0.985

new transformer.UNTRMT_5289369 phases=1 windings=3 %r=2.08 xhl=1.39 xht=1.39 xlt=0.97 kva=10.0
~ wdg=1 bus=82339125002414.1 conn=wye kv=7.96 kva=10.0 %r=1.04
~ wdg=2 bus=82339125289369.1.0 conn=wye kv=0.22 kva=10.0 %r=1.04
~ wdg=3 bus=82339125289369.0.2 conn=wye kv=0.22 kva=10.0 %r=1.04

new transformer.UNTRMT_5289371 phases=1 windings=3 %r=1.83 xhl=1.71 xht=1.71 xlt=1.2 kva=25.0
~ wdg=1 bus=82339275002414.1 conn=wye kv=7.96 kva=25.0 %r=0.915
~ wdg=2 bus=82339275289371.1.0 conn=wye kv=0.22 kva=25.0 %r=0.915
~ wdg=3 bus=82339275289371.0.2 conn=wye kv=0.22 kva=25.0 %r=0.915

new transformer.UNTRMT_5289372 phases=1 windings=3 %r=1.83 xhl=1.71 xht=1.71 xlt=1.2 kva=25.0
~ wdg=1 bus=82339365002414.1 conn=wye kv=7.96 kva=25.0 %r=0.915
~ wdg=2 bus=82339365289372.1.0 conn=wye kv=0.22 kva=25.0 %r=0.915
~ wdg=3 bus=82339365289372.0.2 conn=wye kv=0.22 kva=25.0 %r=0.915

new transformer.UNTRMT_5289373 phases=1 windings=3 %r=2.08 xhl=1.39 xht=1.39 xlt=0.97 kva=10.0
~ wdg=1 bus=82340545002414.1 conn=wye kv=7.96 kva=10.0 %r=1.04
~ wdg=2 bus=82340545289373.1.0 conn=wye kv=0.22 kva=10.0 %r=1.04
~ wdg=3 bus=82340545289373.0.2 conn=wye kv=0.22 kva=10.0 %r=1.04

new transformer.UNTRMT_5289375 phases=1 windings=3 %r=1.97 xhl=1.55 xht=1.55 xlt=1.08 kva=15.0
~ wdg=1 bus=82339165002414.1 conn=wye kv=7.96 kva=15.0 %r=0.985
~ wdg=2 bus=82339165289375.1.0 conn=wye kv=0.22 kva=15.0 %r=0.985
~ wdg=3 bus=82339165289375.0.2 conn=wye kv=0.22 kva=15.0 %r=0.985

new transformer.UNTRMT_5289376 phases=1 windings=3 %r=2.08 xhl=1.39 xht=1.39 xlt=0.97 kva=10.0
~ wdg=1 bus=82339205002414.1 conn=wye kv=7.96 kva=10.0 %r=1.04
~ wdg=2 bus=82339205289376.1.0 conn=wye kv=0.22 kva=10.0 %r=1.04
~ wdg=3 bus=82339205289376.0.2 conn=wye kv=0.22 kva=10.0 %r=1.04

new transformer.UNTRMT_5289377 phases=1 windings=3 %r=2.08 xhl=1.39 xht=1.39 xlt=0.97 kva=10.0
~ wdg=1 bus=82339245002414.1 conn=wye kv=7.96 kva=10.0 %r=1.04
~ wdg=2 bus=82339245289377.1.0 conn=wye kv=0.22 kva=10.0 %r=1.04
~ wdg=3 bus=82339245289377.0.2 conn=wye kv=0.22 kva=10.0 %r=1.04

new transformer.UNTRMT_5289378 phases=1 windings=3 %r=2.08 xhl=1.39 xht=1.39 xlt=0.97 kva=10.0
~ wdg=1 bus=82340185002414.1 conn=wye kv=7.96 kva=10.0 %r=1.04
~ wdg=2 bus=82340185289378.1.0 conn=wye kv=0.22 kva=10.0 %r=1.04
~ wdg=3 bus=82340185289378.0.2 conn=wye kv=0.22 kva=10.0 %r=1.04

new transformer.UNTRMT_5289379 phases=1 windings=3 %r=2.08 xhl=1.39 xht=1.39 xlt=0.97 kva=10.0
~ wdg=1 bus=82340195002414.1 conn=wye kv=7.96 kva=10.0 %r=1.04
~ wdg=2 bus=82340195289379.1.0 conn=wye kv=0.22 kva=10.0 %r=1.04
~ wdg=3 bus=82340195289379.0.2 conn=wye kv=0.22 kva=10.0 %r=1.04

new transformer.UNTRMT_5289385 phases=3 windings=2 %r=1.78 xhl=3.01 kva=30.0
~ wdg=1 bus=82346325002414.1.2.3 conn=delta kv=13.8
~ wdg=2 bus=82346325289385.1.2.3.0 conn=wye kv=0.38

new transformer.UNTRMT_5289386 phases=3 windings=2 %r=1.46 xhl=3.18 kva=112.0
~ wdg=1 bus=83935975002414.1.2.3 conn=delta kv=13.8
~ wdg=2 bus=83935975289386.1.2.3.0 conn=wye kv=0.38

new transformer.UNTRMT_5289388 phases=3 windings=2 %r=1.46 xhl=3.18 kva=112.0
~ wdg=1 bus=82352585002414.1.2.3 conn=delta kv=13.8
~ wdg=2 bus=82352585289388.1.2.3.0 conn=wye kv=0.38

new transformer.UNTRMT_5289389 phases=1 windings=3 %r=1.83 xhl=1.71 xht=1.71 xlt=1.2 kva=25.0
~ wdg=1 bus=82355395002414.2 conn=wye kv=7.96 kva=25.0 %r=0.915
~ wdg=2 bus=82355395289389.1.0 conn=wye kv=0.22 kva=25.0 %r=0.915
~ wdg=3 bus=82355395289389.0.2 conn=wye kv=0.22 kva=25.0 %r=0.915

new transformer.UNTRMT_5289390 phases=1 windings=3 %r=1.97 xhl=1.55 xht=1.55 xlt=1.08 kva=15.0
~ wdg=1 bus=82355025002414.2 conn=wye kv=7.96 kva=15.0 %r=0.985
~ wdg=2 bus=82355025289390.1.0 conn=wye kv=0.22 kva=15.0 %r=0.985
~ wdg=3 bus=82355025289390.0.2 conn=wye kv=0.22 kva=15.0 %r=0.985

new transformer.UNTRMT_5289391 phases=1 windings=3 %r=1.97 xhl=1.55 xht=1.55 xlt=1.08 kva=15.0
~ wdg=1 bus=82355045002414.2 conn=wye kv=7.96 kva=15.0 %r=0.985
~ wdg=2 bus=82355045289391.1.0 conn=wye kv=0.22 kva=15.0 %r=0.985
~ wdg=3 bus=82355045289391.0.2 conn=wye kv=0.22 kva=15.0 %r=0.985

new transformer.UNTRMT_5289392 phases=1 windings=3 %r=1.97 xhl=1.55 xht=1.55 xlt=1.08 kva=15.0
~ wdg=1 bus=82344685002414.1 conn=wye kv=7.96 kva=15.0 %r=0.985
~ wdg=2 bus=82344685289392.1.0 conn=wye kv=0.22 kva=15.0 %r=0.985
~ wdg=3 bus=82344685289392.0.2 conn=wye kv=0.22 kva=15.0 %r=0.985

new transformer.UNTRMT_5289478 phases=3 windings=2 %r=1.68 xhl=3.07 kva=45.0
~ wdg=1 bus=82334545002414.1.2.3 conn=delta kv=13.8
~ wdg=2 bus=82334545289478.1.2.3.0 conn=wye kv=0.38

new transformer.UNTRMT_5289479 phases=3 windings=2 %r=1.55 xhl=3.14 kva=75.0
~ wdg=1 bus=82335235002414.1.2.3 conn=delta kv=13.8
~ wdg=2 bus=82335235289479.1.2.3.0 conn=wye kv=0.38

new transformer.UNTRMT_5289480 phases=3 windings=2 %r=1.68 xhl=3.07 kva=45.0
~ wdg=1 bus=82328475002414.1.2.3 conn=delta kv=13.8
~ wdg=2 bus=82328475289480.1.2.3.0 conn=wye kv=0.38

new transformer.UNTRMT_5289481 phases=3 windings=2 %r=1.68 xhl=3.07 kva=45.0
~ wdg=1 bus=82327695002414.1.2.3 conn=delta kv=13.8
~ wdg=2 bus=82327695289481.1.2.3.0 conn=wye kv=0.38

new transformer.UNTRMT_5289482 phases=3 windings=2 %r=1.55 xhl=3.14 kva=75.0
~ wdg=1 bus=82327605002414.1.2.3 conn=delta kv=13.8
~ wdg=2 bus=82327605289482.1.2.3.0 conn=wye kv=0.38

new transformer.UNTRMT_5289483 phases=3 windings=2 %r=1.46 xhl=3.18 kva=112.0
~ wdg=1 bus=82334505002414.1.2.3 conn=delta kv=13.8
~ wdg=2 bus=82334505289483.1.2.3.0 conn=wye kv=0.38

new transformer.UNTRMT_5289484 phases=3 windings=2 %r=1.46 xhl=3.18 kva=112.0
~ wdg=1 bus=82334895002414.1.2.3 conn=delta kv=13.8
~ wdg=2 bus=82334895289484.1.2.3.0 conn=wye kv=0.38

new transformer.UNTRMT_5289485 phases=3 windings=2 %r=1.55 xhl=3.14 kva=75.0
~ wdg=1 bus=82327475002414.1.2.3 conn=delta kv=13.8
~ wdg=2 bus=82327475289485.1.2.3.0 conn=wye kv=0.38

new transformer.UNTRMT_5289486 phases=3 windings=2 %r=1.46 xhl=3.18 kva=112.0
~ wdg=1 bus=82326065002414.1.2.3 conn=delta kv=13.8
~ wdg=2 bus=82326065289486.1.2.3.0 conn=wye kv=0.38

new transformer.UNTRMT_5289487 phases=3 windings=2 %r=1.55 xhl=3.14 kva=75.0
~ wdg=1 bus=82328795002414.1.2.3 conn=delta kv=13.8
~ wdg=2 bus=82328795289487.1.2.3.0 conn=wye kv=0.38

new transformer.UNTRMT_5289488 phases=3 windings=2 %r=1.46 xhl=3.18 kva=112.0
~ wdg=1 bus=82329355002414.1.2.3 conn=delta kv=13.8
~ wdg=2 bus=82329355289488.1.2.3.0 conn=wye kv=0.38

new transformer.UNTRMT_5289489 phases=3 windings=2 %r=1.46 xhl=3.18 kva=112.0
~ wdg=1 bus=82330775002414.1.2.3 conn=delta kv=13.8
~ wdg=2 bus=82330775289489.1.2.3.0 conn=wye kv=0.38

new transformer.UNTRMT_5289490 phases=3 windings=2 %r=1.46 xhl=3.18 kva=112.0
~ wdg=1 bus=82333875002414.1.2.3 conn=delta kv=13.8
~ wdg=2 bus=82333875289490.1.2.3.0 conn=wye kv=0.38

new transformer.UNTRMT_5289491 phases=3 windings=2 %r=1.55 xhl=3.14 kva=75.0
~ wdg=1 bus=82334005002414.1.2.3 conn=delta kv=13.8
~ wdg=2 bus=82334005289491.1.2.3.0 conn=wye kv=0.38

new transformer.UNTRMT_5289492 phases=3 windings=2 %r=1.68 xhl=3.07 kva=45.0
~ wdg=1 bus=82328665002414.1.2.3 conn=delta kv=13.8
~ wdg=2 bus=82328665289492.1.2.3.0 conn=wye kv=0.38

new transformer.UNTRMT_5289493 phases=3 windings=2 %r=1.68 xhl=3.07 kva=45.0
~ wdg=1 bus=82335115002414.1.2.3 conn=delta kv=13.8
~ wdg=2 bus=82335115289493.1.2.3.0 conn=wye kv=0.38

new transformer.UNTRMT_5289494 phases=3 windings=2 %r=1.55 xhl=3.14 kva=75.0
~ wdg=1 bus=82335725002414.1.2.3 conn=delta kv=13.8
~ wdg=2 bus=82335725289494.1.2.3.0 conn=wye kv=0.38

new transformer.UNTRMT_5289495 phases=3 windings=2 %r=1.55 xhl=3.14 kva=75.0
~ wdg=1 bus=82335715002414.1.2.3 conn=delta kv=13.8
~ wdg=2 bus=82335715289495.1.2.3.0 conn=wye kv=0.38

new transformer.UNTRMT_5289496 phases=3 windings=2 %r=1.55 xhl=3.14 kva=75.0
~ wdg=1 bus=82330335002414.1.2.3 conn=delta kv=13.8
~ wdg=2 bus=82330335289496.1.2.3.0 conn=wye kv=0.38

new transformer.UNTRMT_5289497 phases=3 windings=2 %r=1.46 xhl=3.18 kva=112.0
~ wdg=1 bus=82336345002414.1.2.3 conn=delta kv=13.8
~ wdg=2 bus=82336345289497.1.2.3.0 conn=wye kv=0.38

new transformer.UNTRMT_5289498 phases=3 windings=2 %r=1.46 xhl=3.18 kva=112.0
~ wdg=1 bus=82336205002414.1.2.3 conn=delta kv=13.8
~ wdg=2 bus=82336205289498.1.2.3.0 conn=wye kv=0.38

new transformer.UNTRMT_5289499 phases=3 windings=2 %r=1.46 xhl=3.18 kva=112.0
~ wdg=1 bus=82336695002414.1.2.3 conn=delta kv=13.8
~ wdg=2 bus=82336695289499.1.2.3.0 conn=wye kv=0.38

new transformer.UNTRMT_5289500 phases=3 windings=2 %r=1.55 xhl=3.14 kva=75.0
~ wdg=1 bus=82336715002414.1.2.3 conn=delta kv=13.8
~ wdg=2 bus=82336715289500.1.2.3.0 conn=wye kv=0.38

new transformer.UNTRMT_5289501 phases=3 windings=2 %r=1.55 xhl=3.14 kva=75.0
~ wdg=1 bus=82339845002414.1.2.3 conn=delta kv=13.8
~ wdg=2 bus=82339845289501.1.2.3.0 conn=wye kv=0.38

new transformer.UNTRMT_5289502 phases=3 windings=2 %r=1.46 xhl=3.18 kva=112.0
~ wdg=1 bus=82339875002414.1.2.3 conn=delta kv=13.8
~ wdg=2 bus=82339875289502.1.2.3.0 conn=wye kv=0.38

new transformer.UNTRMT_5289503 phases=3 windings=2 %r=1.46 xhl=3.18 kva=112.0
~ wdg=1 bus=82338955002414.1.2.3 conn=delta kv=13.8
~ wdg=2 bus=82338955289503.1.2.3.0 conn=wye kv=0.38

new transformer.UNTRMT_5289504 phases=3 windings=2 %r=1.55 xhl=3.14 kva=75.0
~ wdg=1 bus=82338885002414.1.2.3 conn=delta kv=13.8
~ wdg=2 bus=82338885289504.1.2.3.0 conn=wye kv=0.38

new transformer.UNTRMT_5289505 phases=3 windings=2 %r=1.55 xhl=3.14 kva=75.0
~ wdg=1 bus=82337185002414.1.2.3 conn=delta kv=13.8
~ wdg=2 bus=82337185289505.1.2.3.0 conn=wye kv=0.38

new transformer.UNTRMT_5289506 phases=3 windings=2 %r=1.68 xhl=3.07 kva=45.0
~ wdg=1 bus=82337875002414.1.2.3 conn=delta kv=13.8
~ wdg=2 bus=82337875289506.1.2.3.0 conn=wye kv=0.38

new transformer.UNTRMT_5289507 phases=3 windings=2 %r=1.68 xhl=3.07 kva=45.0
~ wdg=1 bus=82337795002414.1.2.3 conn=delta kv=13.8
~ wdg=2 bus=82337795289507.1.2.3.0 conn=wye kv=0.38

new transformer.UNTRMT_5289508 phases=3 windings=2 %r=1.55 xhl=3.14 kva=75.0
~ wdg=1 bus=82338215002414.1.2.3 conn=delta kv=13.8
~ wdg=2 bus=82338215289508.1.2.3.0 conn=wye kv=0.38

new transformer.UNTRMT_5289509 phases=3 windings=2 %r=1.55 xhl=3.14 kva=75.0
~ wdg=1 bus=82338385002414.1.2.3 conn=delta kv=13.8
~ wdg=2 bus=82338385289509.1.2.3.0 conn=wye kv=0.38

new transformer.UNTRMT_5289510 phases=3 windings=2 %r=1.46 xhl=3.18 kva=112.0
~ wdg=1 bus=82336765002414.1.2.3 conn=delta kv=13.8
~ wdg=2 bus=82336765289510.1.2.3.0 conn=wye kv=0.38

new transformer.UNTRMT_5289511 phases=3 windings=2 %r=1.55 xhl=3.14 kva=75.0
~ wdg=1 bus=82335635002414.1.2.3 conn=delta kv=13.8
~ wdg=2 bus=82335635289511.1.2.3.0 conn=wye kv=0.38

new transformer.UNTRMT_5289512 phases=3 windings=2 %r=1.55 xhl=3.14 kva=75.0
~ wdg=1 bus=82343775002414.1.2.3 conn=delta kv=13.8
~ wdg=2 bus=82343775289512.1.2.3.0 conn=wye kv=0.38

new transformer.UNTRMT_5289513 phases=3 windings=2 %r=1.55 xhl=3.14 kva=75.0
~ wdg=1 bus=82346005002414.1.2.3 conn=delta kv=13.8
~ wdg=2 bus=82346005289513.1.2.3.0 conn=wye kv=0.38

new transformer.UNTRMT_5289514 phases=3 windings=2 %r=1.55 xhl=3.14 kva=75.0
~ wdg=1 bus=82345405002414.1.2.3 conn=delta kv=13.8
~ wdg=2 bus=82345405289514.1.2.3.0 conn=wye kv=0.38

new transformer.UNTRMT_5289515 phases=3 windings=2 %r=1.55 xhl=3.14 kva=75.0
~ wdg=1 bus=82345755002414.1.2.3 conn=delta kv=13.8
~ wdg=2 bus=82345755289515.1.2.3.0 conn=wye kv=0.38

new transformer.UNTRMT_5289516 phases=3 windings=2 %r=1.46 xhl=3.18 kva=112.0
~ wdg=1 bus=82339725002414.1.2.3 conn=delta kv=13.8
~ wdg=2 bus=82339725289516.1.2.3.0 conn=wye kv=0.38

new transformer.UNTRMT_5289517 phases=3 windings=2 %r=1.55 xhl=3.14 kva=75.0
~ wdg=1 bus=82343355002414.1.2.3 conn=delta kv=13.8
~ wdg=2 bus=82343355289517.1.2.3.0 conn=wye kv=0.38

new transformer.UNTRMT_5289518 phases=3 windings=2 %r=1.55 xhl=3.14 kva=75.0
~ wdg=1 bus=82343435002414.1.2.3 conn=delta kv=13.8
~ wdg=2 bus=82343435289518.1.2.3.0 conn=wye kv=0.38

new transformer.UNTRMT_5289519 phases=3 windings=2 %r=1.55 xhl=3.14 kva=75.0
~ wdg=1 bus=82342825002414.1.2.3 conn=delta kv=13.8
~ wdg=2 bus=82342825289519.1.2.3.0 conn=wye kv=0.38

new transformer.UNTRMT_5289520 phases=3 windings=2 %r=1.68 xhl=3.07 kva=45.0
~ wdg=1 bus=82343645002414.1.2.3 conn=delta kv=13.8
~ wdg=2 bus=82343645289520.1.2.3.0 conn=wye kv=0.38

new transformer.UNTRMT_5289521 phases=3 windings=2 %r=1.55 xhl=3.14 kva=75.0
~ wdg=1 bus=82344615002414.1.2.3 conn=delta kv=13.8
~ wdg=2 bus=82344615289521.1.2.3.0 conn=wye kv=0.38

new transformer.UNTRMT_5289522 phases=3 windings=2 %r=1.68 xhl=3.07 kva=45.0
~ wdg=1 bus=82342375002414.1.2.3 conn=delta kv=13.8
~ wdg=2 bus=82342375289522.1.2.3.0 conn=wye kv=0.38

new transformer.UNTRMT_5289523 phases=3 windings=2 %r=1.39 xhl=3.21 kva=150.0
~ wdg=1 bus=82346715002414.1.2.3 conn=delta kv=13.8
~ wdg=2 bus=82346715289523.1.2.3.0 conn=wye kv=0.38

new transformer.UNTRMT_5289524 phases=3 windings=2 %r=1.46 xhl=3.18 kva=112.0
~ wdg=1 bus=82347215002414.1.2.3 conn=delta kv=13.8
~ wdg=2 bus=82347215289524.1.2.3.0 conn=wye kv=0.38

new transformer.UNTRMT_5289525 phases=3 windings=2 %r=1.55 xhl=3.14 kva=75.0
~ wdg=1 bus=82341785002414.1.2.3 conn=delta kv=13.8
~ wdg=2 bus=82341785289525.1.2.3.0 conn=wye kv=0.38

new transformer.UNTRMT_5289526 phases=3 windings=2 %r=1.55 xhl=3.14 kva=75.0
~ wdg=1 bus=82347125002414.1.2.3 conn=delta kv=13.8
~ wdg=2 bus=82347125289526.1.2.3.0 conn=wye kv=0.38

new transformer.UNTRMT_5289527 phases=3 windings=2 %r=1.46 xhl=3.18 kva=112.0
~ wdg=1 bus=82341315002414.1.2.3 conn=delta kv=13.8
~ wdg=2 bus=82341315289527.1.2.3.0 conn=wye kv=0.38

new transformer.UNTRMT_5289528 phases=3 windings=2 %r=1.46 xhl=3.18 kva=112.0
~ wdg=1 bus=82341235002414.1.2.3 conn=delta kv=13.8
~ wdg=2 bus=82341235289528.1.2.3.0 conn=wye kv=0.38

new transformer.UNTRMT_5289529 phases=3 windings=2 %r=1.46 xhl=3.18 kva=112.0
~ wdg=1 bus=82348435002414.1.2.3 conn=delta kv=13.8
~ wdg=2 bus=82348435289529.1.2.3.0 conn=wye kv=0.38

new transformer.UNTRMT_5289530 phases=3 windings=2 %r=1.55 xhl=3.14 kva=75.0
~ wdg=1 bus=82348255002414.1.2.3 conn=delta kv=13.8
~ wdg=2 bus=82348255289530.1.2.3.0 conn=wye kv=0.38

new transformer.UNTRMT_5289531 phases=3 windings=2 %r=1.55 xhl=3.14 kva=75.0
~ wdg=1 bus=82349405002414.1.2.3 conn=delta kv=13.8
~ wdg=2 bus=82349405289531.1.2.3.0 conn=wye kv=0.38

new transformer.UNTRMT_5289532 phases=3 windings=2 %r=1.55 xhl=3.14 kva=75.0
~ wdg=1 bus=82351265002414.1.2.3 conn=delta kv=13.8
~ wdg=2 bus=82351265289532.1.2.3.0 conn=wye kv=0.38

new transformer.UNTRMT_5289533 phases=3 windings=2 %r=1.46 xhl=3.18 kva=112.0
~ wdg=1 bus=82350105002414.1.2.3 conn=delta kv=13.8
~ wdg=2 bus=82350105289533.1.2.3.0 conn=wye kv=0.38

new transformer.UNTRMT_5289534 phases=3 windings=2 %r=1.46 xhl=3.18 kva=112.0
~ wdg=1 bus=82349505002414.1.2.3 conn=delta kv=13.8
~ wdg=2 bus=82349505289534.1.2.3.0 conn=wye kv=0.38

new transformer.UNTRMT_5289535 phases=3 windings=2 %r=1.46 xhl=3.18 kva=112.0
~ wdg=1 bus=82350435002414.1.2.3 conn=delta kv=13.8
~ wdg=2 bus=82350435289535.1.2.3.0 conn=wye kv=0.38

new transformer.UNTRMT_5289536 phases=3 windings=2 %r=1.68 xhl=3.07 kva=45.0
~ wdg=1 bus=82350765002414.1.2.3 conn=delta kv=13.8
~ wdg=2 bus=82350765289536.1.2.3.0 conn=wye kv=0.38

new transformer.UNTRMT_5289537 phases=3 windings=2 %r=1.78 xhl=3.01 kva=30.0
~ wdg=1 bus=82350975002414.1.2.3 conn=delta kv=13.8
~ wdg=2 bus=82350975289537.1.2.3.0 conn=wye kv=0.38

new transformer.UNTRMT_5289538 phases=3 windings=2 %r=1.55 xhl=3.14 kva=75.0
~ wdg=1 bus=82351475002414.1.2.3 conn=delta kv=13.8
~ wdg=2 bus=82351475289538.1.2.3.0 conn=wye kv=0.38

new transformer.UNTRMT_5289539 phases=3 windings=2 %r=1.55 xhl=3.14 kva=75.0
~ wdg=1 bus=82351525002414.1.2.3 conn=delta kv=13.8
~ wdg=2 bus=82351525289539.1.2.3.0 conn=wye kv=0.38

new transformer.UNTRMT_5289540 phases=3 windings=2 %r=1.46 xhl=3.18 kva=112.0
~ wdg=1 bus=82352995002414.1.2.3 conn=delta kv=13.8
~ wdg=2 bus=82352995289540.1.2.3.0 conn=wye kv=0.38

new transformer.UNTRMT_5289541 phases=3 windings=2 %r=1.39 xhl=3.21 kva=150.0
~ wdg=1 bus=82320855002414.1.2.3 conn=delta kv=13.8
~ wdg=2 bus=82320855289541.1.2.3.0 conn=wye kv=0.38

...